Circuit: * C:\Users\Brandon\Dropbox\school\JD\module6\ltspice.asc

